<?xml version="1.0" encoding="UTF-8"?>

<!-- generated on 2025-03-03 00:58:07 by Eclipse SUMO sumo Version 1.22.0
-->

<sumoConfiguration xmlns:xsi="http://www.w3.org/2001/XMLSchema-instance" xsi:noNamespaceSchemaLocation="http://sumo.dlr.de/xsd/sumoConfiguration.xsd">

    <input>
        <net-file value="1131.net.xml"/>
    </input>

</sumoConfiguration>
